<?xml version="1.0" encoding="UTF-8"?>

<!-- generated on 2026-04-06 20:14:27.079949 by Eclipse SUMO randomTrips.py v1_26_0+0000-fa7df22d7f1
<configuration>
    <net-file value="data/networks/ljubljana.net.xml"/>
    <output-trip-file value="C:\Users\jenic\AppData\Local\Temp\trips_bin_0.trips.xml"/>
    <fringe-factor value="5"/>
    <period value="0.8784773060029283"/>
</configuration>
-->

<!-- generated on 2026-04-06T20:14:26.795786+01:00 by Eclipse SUMO duarouter 1.26.0
<duarouterConfiguration xmlns:xsi="http://www.w3.org/2001/XMLSchema-instance" xsi:noNamespaceSchemaLocation="http://sumo.dlr.de/xsd/duarouterConfiguration.xsd">

    <input>
        <net-file value="data/networks/ljubljana.net.xml"/>
        <route-files value="C:\Users\jenic\AppData\Local\Temp\trips_bin_0.trips.xml"/>
    </input>

    <output>
        <output-file value="routes.rou.xml"/>
        <alternatives-output value="NUL"/>
    </output>

    <time>
        <begin value="0.0"/>
        <end value="3600.0"/>
    </time>

    <report>
        <no-warnings value="true"/>
        <ignore-errors value="true"/>
        <no-step-log value="true"/>
    </report>

</duarouterConfiguration>
-->

<routes xmlns:xsi="http://www.w3.org/2001/XMLSchema-instance" xsi:noNamespaceSchemaLocation="http://sumo.dlr.de/xsd/routes_file.xsd">
    <vehicle id="0" depart="0.00">
        <route edges="293246120#1 184817880#1 184817880#2 184817880#3 184817880#4 184817880#5 -1115598962#2"/>
    </vehicle>
    <vehicle id="1" depart="0.88">
        <route edges="423653442 744631990 39753284#1 39753286#1 887358259#2 1055194745 974840224#1 974840224#2 974840225 -781415317#2 -995555607#1 -995555607#0 -781416273#2 -781416273#0 -939499546#3 -939499546#2 -939499546#1 -150342293#0 -880413312#3 -880413312#2 -880413312#1 1215807513#0 1215807513#1 1215807513#2 310578755#3 4342870#0 4342870#1 1118761354#0 1118761354#1 1118761354#2 1118761354#3 1118761355#0 1118761355#1 -5032985#3 -5032985#2 -5032985#0 -1115590335#2 -39726111#5 -39726111#4 -39726111#3 -39726111#2 -39726111#1 936921960#1 936921958 606089574#1 42689596#0 42689596#1 368285695#0 368285695#1"/>
    </vehicle>
    <vehicle id="2" depart="1.76">
        <route edges="876246512 983016190#0 -368284689#3 -368284689#2 -368284689#1 -368284689#0 -927807804#2 -927807804#1 -150154695#3 -150154695#2 -927807807 -310578755#6 -310578755#5 -310578755#4 -310578755#3 -310578755#0 -1215807513#1"/>
    </vehicle>
    <vehicle id="3" depart="2.64">
        <route edges="1118754629#0 1118754629#2 1118754629#3 1118754628#1 1118754628#2 1118754628#4 1118754628#5 -1123961240#1 -1123961240#0 -1118754637#1 -1123961239#1 -1123961239#0 1115598962#0 1115598962#1 1115598962#2 1115594867#2 1115594867#3 1115594867#4 927831671#1 927831671#2 927831670#2 927831668#0 601393222#0 601393222#3 601393222#4 601393222#5 601393222#6 601393222#7 -1118746000"/>
    </vehicle>
    <vehicle id="4" depart="3.51">
        <route edges="-4698075#7 -4698075#6 -4698075#5 -4698075#4 -4698075#3 -4698075#2 -4698075#1 -4698075#0 -922264037#1 295152804#2 1092816743 39726119#1 39726119#2 -4579203#3 -4579203#2 -4579203#1 -4579203#0 -1115594868#1 -1115594868#0 -1230309154#2 922264037#1 4698075#0 4698075#1 4698075#2 4698075#3 4698075#4 4698075#5 4698075#6 4698075#7 4698075#8 1157520795#0 1157520795#1 1157520795#2"/>
    </vehicle>
    <vehicle id="5" depart="4.39">
        <route edges="-1115598974#0 927831668#2 927831668#3 150154692#0 878414739#1 878414739#3 927831667 1115598939 1115594866 4342869#0 4342869#1 1118760208#0 -1115590335#3 5033261#0 5033261#1 270055655#0 270055655#1 270055655#2 -4342869#1 -4342869#0"/>
    </vehicle>
    <vehicle id="6" depart="5.27">
        <route edges="310578755#4 310578755#5 310578755#6 927807807 150154695#2 150154695#3 927807804#1 927807804#2 368284689#0 368284689#1 368284689#2 368284689#3 1118753701 1125076305 1133590935 281598441#0 281598441#1 281598437#0 281598437#1 281598437#2 150022145#1 150022145#2 150022145#3 150022145#4 281598455 281598449#0 281598449#1 150041510#1 149734169"/>
    </vehicle>
    <vehicle id="7" depart="6.15">
        <route edges="-4705120#0 -1123961240#1 -1123961240#0 -1118754637#1 -1123961239#1 -1123961239#0 -243129121#1 -243129121#0 -1230309152#1 -1115594868#1 -1115594868#0 -1230309154#2 295152804#2 1092816743 1055185919#1 1055185918 999253621 1055185917 974840227#0 -746627561#0 -4854290#2 -4854290#1 -4854290#0 995557122 66452127#0 66452127#1 995557124#0 995557124#1 157997862"/>
    </vehicle>
    <vehicle id="8" depart="7.03">
        <route edges="4854319#3 5033237#0 5033237#1 157997728#0 157997728#1 17256809#0 17256809#1 -1122513070 -995557123 690284954 461404502 4854290#0 4854290#1 4854290#2 -1097792485 -1055194728#1"/>
    </vehicle>
    <vehicle id="9" depart="7.91">
        <route edges="4854319#0 4854319#2 4854319#3 5033237#0 5033237#1 157997728#0 157997728#1 17256809#0 17256809#1 -1122513070 -995557123 690284954 150342302#0 150342302#1 -995555607#1 -995555607#0 -781416273#2 -781416273#0 -939499546#3 -939499546#2 -939499546#1 -150342293#0 -880413312#3 -880413312#2 -880413312#1 1215807513#0 1215807513#1 1215807513#2 310578755#3 310578755#4 310578755#5 310578755#6 927807807 150154695#2 150154695#3 927807804#1 927807804#2 368284689#0 368284689#1 368284689#2 368284689#3 368284687 39726121"/>
    </vehicle>
    <vehicle id="10" depart="8.78">
        <route edges="-150154696 -606944439#1 -606944439#0 -1031842082#1 -927831671#2 -927831671#1 -1115594867#4 -1115594867#3 -1115594867#2 -1115598962#2 -1115598962#1 -1115598962#0 -243129121#1 -243129121#0 -1230309152#1 -1115594868#1 -1115594868#0 -1230309154#2 922264037#1 4698075#0 4698075#1 4698075#2 4698075#3 4698075#4 4698075#5 4698075#6 4698075#7 4698075#8 1157520795#0 1157520795#1 1157520795#2 -1218596816#4"/>
    </vehicle>
    <vehicle id="11" depart="9.66">
        <route edges="5037006#0 5037006#1 1118936755 744631990 39753284#1 39753286#1 887358259#2 1055194745 974840224#1 974840224#2 974840225 -974840227#0 -1055185917 -999253621 -999253622 -1055185919#1 -1092816743 -295152804#2 243129119#0 243129119#1 243129119#2 876246506 983010616#0 983010616#1 983015021#0 983015021#1 983015020 876246512 983016190#0 1118753701 1125076305 1133590935 281598441#0 281598441#1 281598437#0 281598437#1 281598437#2 150022145#1 150022145#2 150022145#3 150022145#4 281598455 281598449#0 281598449#1"/>
    </vehicle>
    <vehicle id="12" depart="10.54">
        <route edges="377960833#0 377960833#1 150154695#2 150154695#3 -150154692#0 -927831668#3 -927831668#2 -927831668#0 -927831670#2 -927831671#2 -927831671#1 -1115594867#4 -1115594867#3 -1115594867#2 -1115598962#2 -1115598962#1 -1115598962#0 1123961239#0 1123961239#1 1118754637#1 1123961240#0 1123961240#1 -1118754628#5 -1118754628#4 -1118754628#2 -1118754628#1 -1118754629#3 -1118754629#2 -1118754629#0"/>
    </vehicle>
    <vehicle id="13" depart="11.42">
        <route edges="281598452 150411738#0 150411738#1 42689596#0 42689596#1 368285695#0 368285695#1 368285695#2 1133592342#1 983016313#0 368284687 39726121 876331291#0 876331291#1 876331291#2 1157507458 1157507457 876246510 39726117#0 39726117#1 295152804#2 1092816743 1055185919#1 1055185918 999253621 1055185917 974840227#0 -781415317#2 -995555607#1 -995555607#0"/>
    </vehicle>
    <vehicle id="14" depart="12.30">
        <route edges="1007055453 876331289#2 1157507460 1157507459 876246507 983010616#0 983010616#1 983015021#0 983015021#1 983015020 876246512 983016190#0 1118753701 1125076305 1133590935 281598441#0 281598441#1 281598437#0 281598437#1 281598437#2 150022145#1 150022145#2 150022145#3 150022145#4 281598455 281598449#0 281598449#1 150047062#0 150047062#1 -4352319#1 -4352319#0"/>
    </vehicle>
    <vehicle id="15" depart="13.18">
        <route edges="-601393222#0 927831668#2"/>
    </vehicle>
    <vehicle id="16" depart="14.06">
        <route edges="310578755#3 4342870#0 4342870#1 1118761354#0 1118761354#1 1118761354#2 1118761354#3 1118761355#0 1118761355#1 -5032985#3 -5032985#2 -5032985#0 5033261#0 5033261#1 270055655#0 270055655#1 270055655#2"/>
    </vehicle>
    <vehicle id="17" depart="14.93">
        <route edges="-39726111#3 -39726111#2 -39726111#1 936921960#1 936921958 606089574#1 42689596#0 42689596#1 368285695#0 368285695#1 368285695#2 1133592342#1 983016313#0 368284687 39726121 876331291#0 876331291#1 876331291#2 876331290 866977766#0 866977766#1 1007055566"/>
    </vehicle>
    <vehicle id="18" depart="15.81">
        <route edges="149737617#0 149737617#1 149734167#1 1454406827 149728629#0 149728629#1 149728629#2 281598452 150411738#0 150411738#1 42689596#0 42689596#1 368285695#0 368285695#1 368285695#2 1133592342#1 983016313#0 -368284689#3 -368284689#2 -368284689#1 -368284689#0 -927807804#2 -927807804#1 -150154692#0 -927831668#3 -927831668#2 1115598974#0 1115598974#1 1121010078 1121010064#1 1121010064#2 377960833#0 377960833#1"/>
    </vehicle>
    <vehicle id="19" depart="16.69">
        <route edges="-4854290#1 -4854290#0 995557122 331489809 690284954 150342302#0 150342302#1 -995555607#1 -995555607#0 -781416273#2 -781416273#0 -939499546#3 -939499546#2 -939499546#1 -150342293#0 -880413312#3 -880413312#2 -880413312#1 1215807513#0 1215807513#1 1215807513#2 310578755#3 310578755#4 310578755#5 310578755#6 927807807 150154695#2 150154695#3 -150154692#0 -927831668#3 -927831668#2 601393222#0 601393222#3 601393222#4 601393222#5 601393222#6 601393222#7 -1118746000"/>
    </vehicle>
    <vehicle id="20" depart="17.57">
        <route edges="-880413312#1 1215807513#0 1215807513#1 1215807513#2 310578755#3 310578755#4 310578755#5 310578755#6 927807807 150154695#2 150154695#3 -150154692#0 -927831668#3 -927831668#2 -927831668#0 -927831670#2 -927831671#2 -927831671#1 -1115594867#4 -1115594867#3 -1115594867#2 -1115598962#2 -1115598962#1 -1115598962#0 -243129121#1 -243129121#0 -1230309152#1 -1115594868#1 -1115594868#0 -1230309154#2 295152804#2 1092816743 1055185919#1 1055185918 999253621 1055185917 974840227#0 -746627561#0 -974840224#2 -974840224#1 -974840224#0 -887358259#2 -39753286#1 -39753284#1 -744631990 -1118936755 -5037006#1"/>
    </vehicle>
    <vehicle id="21" depart="18.45">
        <route edges="-4698075#1 -4698075#0 -922264037#1 1230309154#2 1115594868#0 1115594868#1 1230309152#1 243129121#0 243129121#1 1115598962#0 1115598962#1 1115598962#2 1115594867#2 1115594867#3 1115594867#4 927831671#1 927831671#2"/>
    </vehicle>
    <vehicle id="22" depart="19.33">
        <route edges="781415317#2 -974840227#0 -1055185917 -999253621 -999253622 -1055185919#1 -1092816743 -295152804#2 243129119#0 243129119#1 243129119#2 876246506 983010616#0 983010616#1 983015021#0 983015021#1 983015020 876246512 983016190#0 1118753701 1125076305 1133590935 281598441#0 281598441#1 281598437#0 281598437#1 281598437#2 150022145#1 150022145#2 150022145#3 150022145#4 281598455 281598449#0 281598449#1 150047062#0 150047062#1 1302414421#1 1124694561 -880408832"/>
    </vehicle>
    <vehicle id="23" depart="20.20">
        <route edges="887358259#2 1055194745 974840224#1 974840224#2 974840225 -781415317#2 -995555607#1 -995555607#0 -781416273#2 -781416273#0 -939499546#3 -939499546#2 -939499546#1 -150342293#0 -880413312#3 -880413312#2 -880413312#1 1215807513#0 1215807513#1 1215807513#2 310578755#3 4342870#0 4342870#1 1118761354#0 1118761354#1 1118761354#2 1118761354#3 1118761355#0 1118761355#1 -5032985#3 -5032985#2 -5032985#0 -1115590335#2 -39726111#5 -39726111#4 -39726111#3 -39726111#2 -39726111#1 606089577#1 4343004#1 1120206448#0 1120206448#1 1120206447#0"/>
    </vehicle>
    <vehicle id="24" depart="21.08">
        <route edges="149737649#1 149737649#2 149734167#1 1454406827 149728629#0 149728629#1 149728629#2 281598452 150411738#0 150411738#1 42689596#0 42689596#1 368285695#0 368285695#1 368285695#2 1133592342#1 983016313#0 368284687 39726121 876331291#0 876331291#1 876331291#2 1157507458 1157507457 876246510 39726117#0 39726117#1 295152804#2 1092816743 1055185919#1 1055185918 999253621 1055185917 974840227#0 -746627561#0 -974840224#2 -974840224#1 -974840224#0 -887358259#2 -39753286#1 -39753284#1 -744631990 -1118936755 -5037006#1 -5037006#0"/>
    </vehicle>
    <vehicle id="25" depart="21.96">
        <route edges="157997728#1 17256809#0 17256809#1 -1122513070 -995557123 690284954 150342302#0 150342302#1 781415317#2 -974840227#0 -1055185917 -999253621 -999253622 -1055185919#1 -1092816743 -295152804#2 243129119#0 243129119#1 243129119#2 876246506 983010616#0 983010616#1 983015021#0 983015021#1 983015020 876246512"/>
    </vehicle>
    <vehicle id="26" depart="22.84">
        <route edges="1115594868#1 4579203#0 4579203#1 4579203#2 4579203#3 1092817745#1 1092817745#2 66452130 1122509039#2 1122509038 1122509036 1122509037#0 -995555607#1 -995555607#0 -781416273#2 -781416273#0 -939499546#3 -939499546#2 -939499546#1 -4579339#0"/>
    </vehicle>
    <vehicle id="27" depart="23.72">
        <route edges="-150154696 -606944439#1 -606944439#0 -1031842082#1 -927831671#2 -927831671#1 -1115594867#4 -1115594867#3 -1115594867#2 -1115598962#2 -1115598962#1 -1115598962#0 1123961239#0 1123961239#1 1118754637#1 1123961240#0 1123961240#1 -1118754628#5 -1118754628#4 -1118754628#2 -1118754628#1 -1118754629#3 -1118754629#2"/>
    </vehicle>
    <vehicle id="28" depart="24.60">
        <route edges="-184817880#1 66452126#0 66452126#1 66452126#2 66452126#3 4579339#0 -150342293#0 -880413312#3 -880413312#2 -880413312#1 1215807513#0 1215807513#1 1215807513#2 310578755#3 310578755#4"/>
    </vehicle>
    <vehicle id="29" depart="25.48">
        <route edges="4705120#0 4705120#1 4705120#2 4705120#3 4705120#4 983015021#0 983015021#1 983015020 876246512 983016190#0 -368284689#3 -368284689#2 -368284689#1 -368284689#0 -927807804#2 -927807804#1 -150154692#0 -927831668#3 -927831668#2 1115598974#0"/>
    </vehicle>
    <vehicle id="30" depart="26.35">
        <route edges="-1123961240#1 -1123961240#0 -1118754637#1 -1123961239#1 -1123961239#0 1115598962#0 1115598962#1 1115598962#2 1115594867#2 1115594867#3 1115594867#4 927831671#1 927831671#2 1031842082#1"/>
    </vehicle>
    <vehicle id="31" depart="27.23">
        <route edges="995557124#0 995557124#1 157997731#1 157997731#2 17256809#0 17256809#1 -1122513070 -995557123 690284954 150342302#0 150342302#1 -995555607#1 -995555607#0 -781416273#2 -781416273#0 -939499546#3 -939499546#2 -939499546#1 -150342293#0 -880413312#3 -880413312#2 -880413312#1 1215807513#0 1215807513#1 1215807513#2 310578755#3 310578755#4 310578755#5 310578755#6 927807807 150154695#2 150154695#3 927807804#1 927807804#2 368284689#0 368284689#1 368284689#2 368284689#3 1118753701 1125076305 1133590935 281598441#0 281598441#1 281598437#0 281598437#1 281598437#2 150022145#1 150022145#2 150022145#3 150022145#4 281598455 281598449#0 281598449#1 150047062#0 150047062#1 1302414421#1 1124694561 -880408832 1302411362#1 1302411362#2"/>
    </vehicle>
    <vehicle id="32" depart="28.11">
        <route edges="983015020 876246512 983016190#0 -368284689#3 -368284689#2 -368284689#1 -368284689#0 -927807804#2 -927807804#1 -150154695#3 -150154695#2 -927807807 -310578755#6 -310578755#5 -310578755#4 -310578755#3 -310578755#0 -1215807513#1 -1215807513#0 880413312#1 880413312#2 880413312#3 939499547 939499546#1 939499546#2 939499546#3 781416273#0 781416273#2 995555607#0 995555607#1 781415317#2 -746627561#0 -4854290#2 -4854290#1 -4854290#0 995557122 66452127#0 66452127#1"/>
    </vehicle>
    <vehicle id="33" depart="28.99">
        <route edges="-1113760652#2 -1113762882#0 -1157520795#1 -1157520795#0 -4698075#8 -4698075#7 -4698075#6 -4698075#5 -4698075#4 -4698075#3 -4698075#2 -4698075#1 -4698075#0 -922264037#1 1230309154#2 1115594868#0 1115594868#1 1230309152#1 243129121#0 243129121#1 1115598962#0 1115598962#1 1115598962#2 1115594867#2 1115594867#3 1115594867#4 927831671#1 927831671#2 927831670#2 927831668#0 927831668#2 927831668#3 150154692#0 -150154695#3 -150154695#2 -927807807 -310578755#6 -310578755#5 -310578755#4 4342870#0"/>
    </vehicle>
    <vehicle id="34" depart="29.87">
        <route edges="-184817880#2 -184817880#1 66452126#0 66452126#1 66452126#2 66452126#3 4579339#0 939499546#1 939499546#2 939499546#3 781416273#0 781416273#2 995555607#0 995555607#1 781415317#2 -974840227#0 -1055185917 -999253621 -999253622 -1055185919#1 -1092816743 -295152804#2 243129119#0 243129119#1 243129119#2 876246506 983010616#0 983010616#1 -4705120#4 -4705120#3 -4705120#2 -4705120#1 -4705120#0 1118754635#0 1118754635#2"/>
    </vehicle>
    <vehicle id="35" depart="30.75">
        <route edges="1118936755 744631990 39753284#1 39753286#1 887358259#2 1055194745 974840224#1 974840224#2 974840225 -974840227#0 -1055185917 -999253621 -999253622 -1055185919#1 -1092816743 -295152804#2 243129119#0 243129119#1 243129119#2 876246506 983010616#0 983010616#1 983015021#0 983015021#1 983015020 876246512 983016190#0 1118753701 1125076305 1133590935 281598441#0 281598441#1 281598437#0 281598437#1 281598437#2 727578792#0 727578792#1 936921957#1 -781422566#0 -1366465063 -936921961 -1020668978 3314142 936921964#1 936921964#2 936921964#4"/>
    </vehicle>
    <vehicle id="36" depart="31.63">
        <route edges="781415317#2 -746627561#0 -974840224#2 -974840224#1 -974840224#0 -887358259#2 -39753286#1 -39753284#1 -744631990 -1118936755 -5037006#1 -5037006#0"/>
    </vehicle>
    <vehicle id="37" depart="32.50">
        <route edges="880413312#3 939499547 939499546#1 939499546#2 939499546#3 781416273#0 781416273#2 995555607#0 995555607#1 781415317#2 -974840227#0 -1055185917 -999253621 -999253622 -1055185919#1 -1092816743 -295152804#2 922264037#1 4698075#0 4698075#1 4698075#2 4698075#3 4698075#4 4698075#5 4698075#6 4698075#7 4698075#8 1157520795#0 1157520795#1 1157520795#2 1157521416#1 690284945#0 690284945#1 690284945#2 690284945#4"/>
    </vehicle>
    <vehicle id="38" depart="33.38">
        <route edges="184817880#2 184817880#3 184817880#4 184817880#5 1115594867#2 1115594867#3 1115594867#4 927831671#1 927831671#2 927831670#2 927831668#0 927831668#2 927831668#3 150154692#0 927807804#1 927807804#2 368284689#0 368284689#1 368284689#2 368284689#3 1118753701 1125076305 1133590935 281598441#0 281598441#1 281598437#0 281598437#1 281598437#2 150022145#1 150022145#2 150022145#3 -1120206446 -4328717#4 -4328717#3 -4328717#2 -4328717#1 -4328717#0 -3297526#5 -3297526#4"/>
    </vehicle>
    <vehicle id="39" depart="34.26">
        <route edges="4344250#0 4344250#1 971699046#1 1157800663#0 1157800663#1 149734138#2 149731565#2"/>
    </vehicle>
    <vehicle id="40" depart="35.14">
        <route edges="4579339#0 -150342293#0 -880413312#3 -880413312#2 -880413312#1 1215807513#0 1215807513#1 1215807513#2 310578755#3 310578755#4 310578755#5 310578755#6 927807807 150154695#2 150154695#3 927807804#1 927807804#2 368284689#0 368284689#1 368284689#2 368284689#3 1118753701 1125076305 1133590935 281598441#0 281598441#1 281598437#0 281598437#1 281598437#2 150022145#1 150022145#2 150022145#3 150022145#4 281598455 281598449#0 281598449#1 150047062#0 150047062#1 1302414421#1"/>
    </vehicle>
    <vehicle id="41" depart="36.02">
        <route edges="-1115594868#0 -1230309154#2 243129119#0 243129119#1 243129119#2 876246506 983010616#0 983010616#1 983015021#0 983015021#1 983015020 876246512 983016190#0 1118753701 1125076305 1133590935 281598441#0 281598441#1 281598437#0 281598437#1 281598437#2 727578792#0 727578792#1 936921957#1 39726111#1 39726111#2 39726111#3 39726111#4 39726111#5 927816920#1 927816920#2 927816920#4"/>
    </vehicle>
    <vehicle id="42" depart="36.90">
        <route edges="781416273#2 995555607#0 995555607#1 781415317#2 -974840227#0 -1055185917 -999253621 -999253622 -1055185919#1 -1092816743 -295152804#2 243129119#0 243129119#1 243129119#2 876246506 983010616#0 983010616#1 983015021#0 983015021#1 983015020 876246512 983016190#0 1118753701 1125076305 1133590935 281598441#0 281598441#1 281598437#0 281598437#1 281598437#2 368286522#1 1184470616 1184476405 530977023"/>
    </vehicle>
    <vehicle id="43" depart="37.77">
        <route edges="-781871770#0 -880408833#1 -880408833#0 880408833#0 880408833#1 781871770#0 781871770#1 781424097 4328717#0 4328717#1 4328717#2 4328717#3 4328717#4 -1120206447#2 -1120206447#0"/>
    </vehicle>
    <vehicle id="44" depart="38.65">
        <route edges="781416273#2 995555607#0 995555607#1 781415317#2 -974840227#0 -1055185917 -999253621 -999253622 -1055185919#1 -1092816743 -295152804#2 243129119#0 243129119#1 243129119#2 876246506 983010616#0 983010616#1 983015021#0 983015021#1 983015020 876246512 983016190#0 1118753701 1125076305 1133590935 281598441#0 281598441#1 281598437#0 281598437#1 281598437#2 150022145#1 150022145#2 150022145#3 150022145#4 281598455 281598449#0 281598449#1 150047062#0 150047062#1 1302414421#1 1124694561 -880408832 1302411362#1 1302411362#2 149734138#2 149731565#2 936921961"/>
    </vehicle>
    <vehicle id="45" depart="39.53">
        <route edges="-150154692#0 -927831668#3 -927831668#2 1115598974#0 1115598974#1 1121010078 1121010064#1 1121010064#2 377960833#0 377960833#1 150154695#2 150154695#3 927807804#1 927807804#2 368284689#0 368284689#1 368284689#2 368284689#3 1118753701 1125076305"/>
    </vehicle>
    <vehicle id="46" depart="40.41">
        <route edges="-1157521416#1 -1113762882#0 -1157520795#1 -1157520795#0 -4698075#8 -4698075#7 -4698075#6 -4698075#5 -4698075#4 -4698075#3 -4698075#2 -4698075#1 -4698075#0 -922264037#1 295152804#2 1092816743 39726119#1 39726119#2 -4579203#3 -4579203#2 -4579203#1 -4579203#0 -1115594868#1 -1115594868#0 -1230309154#2 922264037#1 4698075#0 4698075#1"/>
    </vehicle>
    <vehicle id="47" depart="41.29">
        <route edges="4344278#0 4344278#1 5032991#1 5032991#2 1302411362#1 1302411362#2 149734138#2 149731565#2 936921961 1366465063 781422566#0 936921960#1 936921958 606089574#1 42689596#0 42689596#1 368285695#0 368285695#1 368285695#2 1133592342#1 983016313#0 -368284689#3 -368284689#2 -368284689#1 -368284689#0 -927807804#2 -927807804#1 -150154692#0 -927831668#3 -927831668#2 -927831668#0 -927831670#2 -927831671#2 -927831671#1 -1115594867#4 -1115594867#3 -1115594867#2 -184817880#5"/>
    </vehicle>
    <vehicle id="48" depart="42.17">
        <route edges="-530977023 -1184476405 1128031926#0 1128031926#1 1128031925 368285696#0 368285696#1 42689596#0 42689596#1 368285695#0 368285695#1 368285695#2 1133592342#1 983016313#0 368284687 39726121 876331291#0 876331291#1 876331291#2 1157507458 1157507457 876246510 39726117#0 39726117#1 922264037#1 4698075#0 4698075#1 4698075#2 4698075#3 4698075#4 4698075#5 4698075#6 4698075#7 4698075#8 1157520795#0 1157520795#1 1157520795#2 1157521416#1 690284945#0 690284945#1 690284945#2 690284945#4"/>
    </vehicle>
    <vehicle id="49" depart="43.05">
        <route edges="1118754629#0 1118754629#2 1118754629#3 1118754628#1 1118754628#2 1118754628#4 1118754628#5 4705120#0 4705120#1 4705120#2 4705120#3 4705120#4 983015021#0 983015021#1 983015020 876246512 983016190#0 1118753701 1125076305 1133590935 281598441#0 281598441#1 281598437#0 281598437#1 281598437#2 150022145#1 150022145#2 150022145#3 150022145#4 281598455 281598449#0 281598449#1 150047062#0 150047062#1 -4352319#1 -4352319#0"/>
    </vehicle>
    <vehicle id="50" depart="43.92">
        <route edges="-927831668#3 -927831668#2 -927831668#0 -927831670#2 -927831671#2 -927831671#1 -1115594867#4 -1115594867#3 -1115594867#2 -1115598962#2 -1115598962#1 -1115598962#0 -243129121#1 -243129121#0 -1230309152#1 -1115594868#1 -1115594868#0 -1230309154#2 295152804#2 1092816743 1055185919#1 1055185918 999253621 1055185917 974840227#0 -746627561#0 -4854290#2 -4854290#1 -4854290#0 995557122 66452127#0 66452127#1 995557124#0 995557124#1 157997862"/>
    </vehicle>
    <vehicle id="51" depart="44.80">
        <route edges="-1184476405 1128031926#0 1128031926#1 1128031925 368285696#0 368285696#1 727578792#0 727578792#1 936921957#1 -781422566#0 -1366465063 -936921961 3297526#0"/>
    </vehicle>
    <vehicle id="52" depart="45.68">
        <route edges="-4854290#1 -4854290#0 995557122 331489809 690284954 150342302#0 150342302#1 -995555607#1 -995555607#0 -781416273#2 -781416273#0 -939499546#3 -939499546#2 -939499546#1 -150342293#0 -880413312#3 -880413312#2 -880413312#1 1215807513#0 1215807513#1 1215807513#2 310578755#3 310578755#4 310578755#5 310578755#6 927807807 150154695#2 150154695#3 927807804#1 927807804#2 368284689#0 368284689#1 368284689#2 368284689#3 368284687 39726121 876331291#0 876331291#1"/>
    </vehicle>
    <vehicle id="53" depart="46.56">
        <route edges="-4854319#5 -4854319#4 -4854319#3 -4854319#2 -4854319#0 -1122513069#2 -1122513069#1 -1122513070 -995557123 690284954 150342302#0 150342302#1 -995555607#1 -995555607#0 -781416273#2 -781416273#0 -939499546#3 -939499546#2 -939499546#1 -150342293#0 -880413312#3 -880413312#2 -880413312#1 1215807513#0 1215807513#1 1215807513#2 310578755#3 310578755#4 310578755#5 310578755#6 927807807 150154695#2 150154695#3 927807804#1 927807804#2 368284689#0 368284689#1 368284689#2 368284689#3 368284687"/>
    </vehicle>
    <vehicle id="54" depart="47.44">
        <route edges="-4698075#4 -4698075#3 -4698075#2 -4698075#1 -4698075#0 -922264037#1 1230309154#2 1115594868#0 1115594868#1 4579203#0 4579203#1 4579203#2 4579203#3 -39726119#2 -39726119#1 -1092816743 -295152804#2"/>
    </vehicle>
    <vehicle id="55" depart="48.32">
        <route edges="1122513069#1 1122513069#2 4854319#0 4854319#2 4854319#3 5033237#0 5033237#1 157997728#0 157997728#1 17256809#0 17256809#1 -1122513070 -995557123 690284954 461404502 4854290#0 4854290#1 4854290#2"/>
    </vehicle>
    <vehicle id="56" depart="49.19">
        <route edges="4854319#2 4854319#3 5033237#0 5033237#1 157997728#0 157997728#1 17256809#0 17256809#1 -1122513070 -995557123 690284954 461404502 4854290#0 4854290#1 4854290#2 -974840224#2 -974840224#1 -974840224#0 -887358259#2 -39753286#1 -39753284#1 -744631990 -423653442"/>
    </vehicle>
    <vehicle id="57" depart="50.07">
        <route edges="1118754629#0 1118754629#2 1118754629#3 1118754628#1 1118754628#2 1118754628#4 1118754628#5 -1123961240#1 -1123961240#0 -1118754637#1 -1123961239#1 -1123961239#0 1115598962#0 1115598962#1 1115598962#2 1115594867#2 1115594867#3 1115594867#4 927831671#1 927831671#2 927831670#2 927831668#0 1115598974#0 1115598974#1 1121010078"/>
    </vehicle>
    <vehicle id="58" depart="50.95">
        <route edges="990423574#0 990423574#1 990423574#2 990423574#3 990423574#4 990423574#5 4352319#0 4352319#1 1118769374 149737649#0 149737649#1 149737649#2 149734167#1 1454406827 149728629#0 149728629#1 149728629#2 281598452 150411738#0 150411738#1 42689596#0 42689596#1 368285695#0 368285695#1 368285695#2 1133592342#1 983016313#0 -368284689#3 -368284689#2 -368284689#1 -368284689#0 -927807804#2 -927807804#1 -150154692#0 -927831668#3 -927831668#2 -927831668#0 -927831670#2 -927831671#2 -927831671#1 -1115594867#4 -1115594867#3 -1115594867#2 -1115598962#2 -1115598962#1 -1115598962#0 -243129121#1 -243129121#0 -1230309152#1"/>
    </vehicle>
    <vehicle id="59" depart="51.83">
        <route edges="1115598962#0 1115598962#1 1115598962#2 1115594867#2 1115594867#3 1115594867#4 927831671#1 927831671#2 927831670#2 927831668#0 1115598974#0 1115598974#1 1121010078 1121010064#1 1121010064#2 377960833#0 377960833#1 150154695#2 150154695#3 -150154692#0 -927831668#3 -927831668#2"/>
    </vehicle>
    <vehicle id="60" depart="52.71">
        <route edges="-4579203#2 -4579203#1 -4579203#0 1230309152#1 243129121#0 243129121#1 1115598962#0 1115598962#1 1115598962#2 1115594867#2 1115594867#3 1115594867#4 927831671#1 927831671#2 927831670#2 927831668#0 927831668#2 927831668#3 150154692#0 -150154695#3 -150154695#2 -927807807 -310578755#6 -310578755#5 -310578755#4 4342870#0 4342870#1 1118761354#0 1118761354#1 1118761354#2 1118761354#3 1118761355#0 1118761355#1"/>
    </vehicle>
    <vehicle id="61" depart="53.59">
        <route edges="-5032985#8 -5032985#6 -5032985#5 -5032985#3 -5032985#2 -5032985#0 1115590335#3 47474728#1 1118759823 1118759822#0 -5033253#3 -5033253#2 -5033253#0 -4342870#1 -4342870#0 310578755#4 310578755#5 310578755#6 927807807 150154695#2 150154695#3 927807804#1"/>
    </vehicle>
    <vehicle id="62" depart="54.47">
        <route edges="1118761354#3 1118761355#0 1118761355#1 -5032985#3 -5032985#2 -5032985#0 1115590335#3 47474728#1 1118759823 1118759822#0 -5033253#3 -5033253#2 -5033253#0 -4342870#1 -4342870#0 -310578755#3 -310578755#0 -1215807513#1 -1215807513#0 880413312#1 880413312#2 880413312#3 939499547 939499546#1 939499546#2 939499546#3 781416273#0 781416273#2 995555607#0 995555607#1 781415317#2 -746627561#0 -4854290#2 -4854290#1 -4854290#0 995557122 66452127#0 66452127#1"/>
    </vehicle>
    <vehicle id="63" depart="55.34">
        <route edges="999253621 1055185917 974840227#0 -781415317#2 -995555607#1 -995555607#0 -781416273#2 -781416273#0 -939499546#3 -939499546#2 -939499546#1 -150342293#0 -880413312#3 -880413312#2 -880413312#1 1215807513#0 1215807513#1 1215807513#2 310578755#3 310578755#4 310578755#5 310578755#6 927807807 150154695#2 150154695#3 -150154692#0 -927831668#3 -927831668#2 601393222#0 601393222#3"/>
    </vehicle>
    <vehicle id="64" depart="56.22">
        <route edges="983010616#0 983010616#1 983015021#0 983015021#1 983015020 876246512 983016190#0 1118753701 1125076305 1133590935 281598441#0 281598441#1 281598437#0 281598437#1 281598437#2 727578792#0 727578792#1 936921957#1 39726111#1 39726111#2 39726111#3 39726111#4 39726111#5 927816920#1"/>
    </vehicle>
    <vehicle id="65" depart="57.10">
        <route edges="66452126#0 66452126#1 66452126#2 66452126#3 4579339#0 939499546#1 939499546#2 939499546#3 781416273#0 781416273#2 995555607#0 995555607#1 781415317#2 -974840227#0 -1055185917 -999253621 -999253622 -1055185919#1 -1092816743 -295152804#2 243129119#0 243129119#1 243129119#2 876246506 983010616#0 983010616#1 983015021#0 983015021#1 983015020 876246512 983016190#0 -368284689#3 -368284689#2 -368284689#1 -368284689#0"/>
    </vehicle>
    <vehicle id="66" depart="57.98">