<?xml version="1.0" encoding="UTF-8"?>

<!-- generated on 2026-04-08 21:05:34.351657 by Eclipse SUMO randomTrips.py v1.26.0
<configuration>
    <net-file value="data/networks/ljubljana.net.xml"/>
    <output-trip-file value="/tmp/trips_partial_1000_47.trips.xml"/>
    <prefix value="out1000_47_"/>
    <fringe-factor value="1"/>
    <seed value="1089"/>
    <begin value="14100.0"/>
    <end value="14400.0"/>
    <period value="6.0"/>
</configuration>
-->

<!-- generated on 2026-04-08T21:05:34.330588+01:00 by Eclipse SUMO duarouter 1.26.0
<duarouterConfiguration xmlns:xsi="http://www.w3.org/2001/XMLSchema-instance" xsi:noNamespaceSchemaLocation="http://sumo.dlr.de/xsd/duarouterConfiguration.xsd">

    <input>
        <net-file value="data/networks/ljubljana.net.xml"/>
        <route-files value="/tmp/trips_partial_1000_47.trips.xml"/>
    </input>

    <output>
        <output-file value="routes.rou.xml"/>
        <alternatives-output value="NUL"/>
    </output>

    <time>
        <begin value="14100.0"/>
        <end value="14400.0"/>
    </time>

    <report>
        <no-warnings value="true"/>
        <ignore-errors value="true"/>
        <no-step-log value="true"/>
    </report>

</duarouterConfiguration>
-->

<routes xmlns:xsi="http://www.w3.org/2001/XMLSchema-instance" xsi:noNamespaceSchemaLocation="http://sumo.dlr.de/xsd/routes_file.xsd">
    <vehicle id="out1000_47_0" depart="14100.00">
        <route edges="-880413312#2 -880413312#1 1215807513#0 1215807513#1 1215807513#2 310578755#3 4342870#0 4342870#1 1118761354#0 1118761354#1 1118761354#2 1118761354#3 1118761355#0 1118761355#1 -5032985#3 -5032985#2 -5032985#0 -1115590335#2 -39726111#5 -39726111#4 -39726111#3 -39726111#2 -39726111#1 606089577#1 4343004#1 1120206448#0"/>
    </vehicle>
    <vehicle id="out1000_47_1" depart="14106.00">
        <route edges="184817880#2 184817880#3 184817880#4 184817880#5 -1115598962#2 -1115598962#1 -1115598962#0 -243129121#1 -243129121#0 -1230309152#1 -1115594868#1 -1115594868#0 -1230309154#2 295152804#2 1092816743 1055185919#1 1055185918 999253621 1055185917 974840227#0 -746627561#0 -4854290#2 -4854290#1 -4854290#0 995557122 66452127#0 66452127#1 995557126"/>
    </vehicle>
    <vehicle id="out1000_47_2" depart="14112.00">
        <route edges="-936921961 3297526#0 3297526#1 3297526#2 3297526#3 3297526#4 3297526#5 4328717#0 4328717#1 4328717#2 4328717#3 4328717#4 -1120206447#2 -1120206447#0 -1120206448#1 -1120206448#0 -4343004#1 -4343004#0 936921960#1 936921958 606089574#1 42689596#0 42689596#1 368285695#0 368285695#1 368285695#2 1133592342#1 983016313#0 368284687 39726121 876331291#0 876331291#1 876331291#2 1157507458 1157507457 876246510 39726117#0 39726117#1 295152804#2 1092816743 1055185919#1 1055185918 999253621 1055185917 974840227#0 -746627561#0 -974840224#2 -974840224#1 -974840224#0 -887358259#2 -39753286#1 -39753284#1 -744631990 -1118936755"/>
    </vehicle>
    <vehicle id="out1000_47_3" depart="14118.00">
        <route edges="-1120206448#1 -1120206448#0 -4343004#1 -4343004#0 936921960#1 936921958 606089574#1 42689596#0 42689596#1 368285695#0 368285695#1 368285695#2 1133592342#1 983016313#0 -368284689#3 -368284689#2 -368284689#1 -368284689#0 -927807804#2 -927807804#1 -150154692#0 -927831668#3 -927831668#2 -927831668#0 -927831670#2 -927831671#2 -927831671#1 -1115594867#4 -1115594867#3 -1115594867#2 -1115598962#2 -1115598962#1 -1115598962#0 1123961239#0 1123961239#1 1118754637#1 1123961240#0 1123961240#1 -1118754628#5 -1118754628#4 -1118754628#2 -1118754628#1 -1118754629#3 -1118754629#2 -1118754629#0"/>
    </vehicle>
    <vehicle id="out1000_47_4" depart="14124.00">
        <route edges="39726111#5 1115590335#2 5033261#0 5033261#1 270055655#0 270055655#1 270055655#2 -4342869#1 -4342869#0 66666802#1 66666802#2 1115594864 24764251 1133590935 281598441#0 281598441#1 281598437#0 281598437#1 281598437#2 150022145#1 150022145#2 150022145#3 -1120206446 -4328717#4 -4328717#3 -4328717#2 -4328717#1"/>
    </vehicle>
    <vehicle id="out1000_47_5" depart="14130.00">
        <route edges="974840224#1 974840224#2 974840225 -781415317#2 -995555607#1 -995555607#0 -781416273#2 -781416273#0 -939499546#3 -939499546#2 -939499546#1 -150342293#0 -880413312#3 -880413312#2 -880413312#1 1215807513#0 1215807513#1 1215807513#2 310578755#3 310578755#4 310578755#5 310578755#6 927807807 150154695#2 150154695#3 927807804#1 927807804#2 368284689#0 368284689#1"/>
    </vehicle>
    <vehicle id="out1000_47_6" depart="14136.00">
        <route edges="4854319#3 5033237#0 5033237#1 157997728#0 157997728#1 17256809#0 17256809#1 -1122513070 -995557123 690284954 150342302#0 150342302#1 781415317#2 -974840227#0 -1055185917 -999253621 -999253622 -1055185919#1 -1092816743 -295152804#2 922264037#1 4698075#0 4698075#1 4698075#2 4698075#3 4698075#4 4698075#5 4698075#6"/>
    </vehicle>
    <vehicle id="out1000_47_7" depart="14142.00">
        <route edges="4579203#3 -39726119#2 -39726119#1 -1092816743 -295152804#2 243129119#0 243129119#1 243129119#2 876246506 983010616#0 983010616#1 983015021#0 983015021#1 983015020 876246512 983016190#0 1118753701 1125076305 1133590935 281598441#0 281598441#1 281598437#0 281598437#1 281598437#2 368286522#1 1184470616 1184476405"/>
    </vehicle>
    <vehicle id="out1000_47_8" depart="14148.00">
        <route edges="5033237#0 5033237#1 157997728#0 157997728#1 17256809#0 17256809#1 -1122513070 -995557123 690284954 150342302#0 150342302#1 781415317#2 -974840227#0 -1055185917 -999253621 -999253622 -1055185919#1 -1092816743 -295152804#2 1230309154#2"/>
    </vehicle>
    <vehicle id="out1000_47_9" depart="14154.00">
        <route edges="-1120206446 -1120206447#2 -1120206447#0 -1120206448#1 -1120206448#0 -4343004#1 -4343004#0 936921960#1 936921958 606089574#1 42689596#0 42689596#1 368285695#0 368285695#1 368285695#2 1133592342#1 983016313#0 368284687 39726121 876331291#0 876331291#1 876331291#2 1157507458 1157507457 876246510 39726117#0 39726117#1 295152804#2 1092816743 1055185919#1 1055185918 999253621 1055185917 974840227#0 -746627561#0 -4854290#2 -4854290#1 -4854290#0 995557122 331489809 995557123 1122513070 1122513069#1 1122513069#2 4854319#0 4854319#2 4854319#3 5033237#0 5033237#1 157997728#0 157997728#1 -157997731#2"/>
    </vehicle>
    <vehicle id="out1000_47_10" depart="14160.00">
        <route edges="-927816920#8 -927816920#7 -927816920#6 -927816920#4 -927816920#2 -927816920#1 1115590335#2 5033261#0 5033261#1 270055655#0 270055655#1 270055655#2 -4342869#1 -4342869#0 66666802#1 66666802#2 1115594864 24764251 1133590935 281598441#0 281598441#1 281598437#0 281598437#1 281598437#2 727578792#0"/>
    </vehicle>
    <vehicle id="out1000_47_11" depart="14166.00">
        <route edges="-1031842082#1 -927831671#2 -927831671#1 -1115594867#4 -1115594867#3 -1115594867#2 -1115598962#2 -1115598962#1 -1115598962#0 1123961239#0 1123961239#1 1118754637#1 1123961240#0 1123961240#1 4705120#0 4705120#1 4705120#2 4705120#3"/>
    </vehicle>
    <vehicle id="out1000_47_12" depart="14172.00">
        <route edges="4328717#4 -1120206447#2 -1120206447#0 -1120206448#1 -1120206448#0 -4343004#1 -4343004#0 936921960#1 936921958 606089574#1 42689596#0 42689596#1 368285695#0 368285695#1 368285695#2 1133592342#1 983016313#0 368284687 39726121 876331291#0 876331291#1 876331291#2 1157507458 1157507457 876246510 39726117#0 39726117#1 295152804#2 1092816743 1055185919#1 1055185918 999253621 1055185917 974840227#0 -746627561#0 -1097792485"/>
    </vehicle>
    <vehicle id="out1000_47_13" depart="14178.00">
        <route edges="927831668#2 927831668#3 150154692#0 927807804#1 927807804#2 368284689#0 368284689#1 368284689#2 368284689#3 368284687 39726121 876331291#0 876331291#1 876331291#2 1157507458 1157507457 1157507459 876246507 983010616#0 983010616#1 983015021#0 983015021#1 983015020 876246512 983016190#0 -368284689#3 -368284689#2 -368284689#1 -368284689#0 -927807804#2 -927807804#1"/>
    </vehicle>
    <vehicle id="out1000_47_14" depart="14184.00">
        <route edges="66452126#2 66452126#3 4579339#0 939499546#1 939499546#2 939499546#3 781416273#0"/>
    </vehicle>
    <vehicle id="out1000_47_15" depart="14190.00">
        <route edges="5033261#0 5033261#1 270055655#0 270055655#1 270055655#2 1118760208#0 -1115590335#3 -1115590335#2 -39726111#5 -39726111#4 -39726111#3 -39726111#2 -39726111#1 -781422566#0 -1366465063 -936921961 -1020668978"/>
    </vehicle>
    <vehicle id="out1000_47_16" depart="14196.00">
        <route edges="1097792485 974840225 -781415317#2 -995555607#1 -995555607#0 -781416273#2 -781416273#0 -939499546#3 -939499546#2 -939499546#1 -150342293#0 -880413312#3 -880413312#2 -880413312#1 1215807513#0 1215807513#1 1215807513#2 310578755#3 310578755#4 310578755#5 310578755#6 927807807 150154695#2 150154695#3 927807804#1 927807804#2 368284689#0 368284689#1 368284689#2 368284689#3 368284687 39726121 876331291#0 876331291#1 876331291#2 876331290 866977766#0 866977766#1"/>
    </vehicle>
    <vehicle id="out1000_47_17" depart="14202.00">
        <route edges="39726111#5 1115590335#2 1115590335#3 47474728#1 1118759823 1118759822#0 -5033253#3 -5033253#2 -5033253#0 -4342870#1 -4342870#0 310578755#4 310578755#5 310578755#6 927807807 150154695#2 150154695#3 -150154692#0 -927831668#3 -927831668#2 -927831668#0 -927831670#2"/>
    </vehicle>
    <vehicle id="out1000_47_18" depart="14208.00">
        <route edges="5033253#3 1118762258#0 1118762258#1 1118762258#2 1118762258#3 1115594866 66666802#1 66666802#2 1115594864 24764251 1133590935 281598441#0 281598441#1 281598437#0 281598437#1 281598437#2"/>
    </vehicle>
    <vehicle id="out1000_47_19" depart="14214.00">
        <route edges="4328717#3 4328717#4 -1120206447#2 -1120206447#0 -1120206448#1 -1120206448#0 -4343004#1 -4343004#0 936921960#1 936921958 606089574#1 42689596#0 42689596#1 368285695#0 368285695#1 368285695#2 1133592342#1 983016313#0 368284687 39726121 876331291#0 876331291#1 876331291#2 1157507458 1157507457 876246510 39726117#0 39726117#1 295152804#2 1092816743 1055185919#1 1055185918 999253621 1055185917 974840227#0 -746627561#0 -4854290#2 -4854290#1 -4854290#0 995557122 331489809 995557123 1122513070 1122513069#1 1122513069#2 4854319#0 4854319#2 4854319#3 5033237#0 5033237#1 157997728#0 157997728#1 -157997731#2 -157997731#1"/>
    </vehicle>
    <vehicle id="out1000_47_20" depart="14220.00">
        <route edges="3297526#3 3297526#4 3297526#5 4328717#0 4328717#1 4328717#2 4328717#3 4328717#4 -1120206447#2 -1120206447#0 -1120206448#1 -1120206448#0 -4343004#1 -4343004#0 39726111#1 39726111#2 39726111#3 39726111#4 39726111#5 1115590335#2 1115590335#3 47474728#1 1118759823 1118759822#0 -5033253#3 -5033253#2 -5033253#0 -4342870#1 -4342870#0 -310578755#3 -310578755#0 -1215807513#1 -1215807513#0 880413312#1 880413312#2 880413312#3 939499547 -4579339#0 -66452126#3 -66452126#2 -66452126#1 -66452126#0"/>
    </vehicle>
    <vehicle id="out1000_47_21" depart="14226.00">
        <route edges="1118759822#0 1118762258#0 1118762258#1 1118762258#2 1118762258#3 1115594866 66666802#1 66666802#2 1115594864 24764251 1133590935 281598441#0 281598441#1 281598437#0 281598437#1 281598437#2 150022145#1 150022145#2 150022145#3 150022145#4 281598455 281598449#0 281598449#1 150047062#0 150047062#1 1302414421#1 1124694561"/>
    </vehicle>
    <vehicle id="out1000_47_22" depart="14232.00">
        <route edges="936921961 1366465063 781422566#0 39726111#1 39726111#2 39726111#3 39726111#4 39726111#5 1115590335#2 1115590335#3 47474728#1 1118759823 1118759822#0 -5033253#3 -5033253#2 -5033253#0 -4342870#1 -4342870#0 -310578755#3 -310578755#0 -1215807513#1 -1215807513#0 880413312#1 880413312#2 880413312#3 939499547 939499546#1 939499546#2 939499546#3 781416273#0 781416273#2 995555607#0 995555607#1 781415317#2 -746627561#0 -4854290#2 -4854290#1 -4854290#0 995557122 331489809 995557123 -995557126"/>
    </vehicle>
    <vehicle id="out1000_47_23" depart="14238.00">
        <route edges="184817880#5 -1115598962#2 -1115598962#1 -1115598962#0 -243129121#1 -243129121#0 -1230309152#1 -1115594868#1 -1115594868#0 -1230309154#2 295152804#2 1092816743 1055185919#1 1055185918 999253621 1055185917 974840227#0 -781415317#2 -995555607#1"/>
    </vehicle>
    <vehicle id="out1000_47_24" depart="14244.00">
        <route edges="5033253#3 1118762258#0 1118762258#1 1118762258#2 1118762258#3 1115594866 4342869#0 4342869#1 1118760208#0 -1115590335#3 1171323802 5032985#2 5032985#3 5032985#5 5032985#6"/>
    </vehicle>
    <vehicle id="out1000_47_25" depart="14250.00">
        <route edges="-1184476405 1128031926#0 1128031926#1 1128031925 368285696#0 368285696#1 42689596#0 42689596#1 368285695#0 368285695#1 368285695#2 1133592342#1 983016313#0 -368284689#3 -368284689#2 -368284689#1 -368284689#0 -927807804#2 -927807804#1 -150154695#3 -150154695#2 -927807807 -310578755#6 -310578755#5 -310578755#4 -310578755#3 -310578755#0 -1215807513#1 -1215807513#0 880413312#1 880413312#2 880413312#3 939499547 939499546#1 939499546#2 939499546#3 781416273#0 781416273#2 995555607#0 995555607#1 781415317#2 -974840227#0"/>
    </vehicle>
    <vehicle id="out1000_47_26" depart="14256.00">
        <route edges="5033237#1 157997728#0 157997728#1 17256809#0 17256809#1 -1122513070 -995557123 690284954 150342302#0 150342302#1 781415317#2 -974840227#0 -1055185917 -999253621 -999253622 -1055185919#1 -1092816743 -295152804#2 922264037#1 4698075#0 4698075#1 4698075#2 4698075#3 4698075#4 4698075#5 4698075#6 4698075#7"/>
    </vehicle>
    <vehicle id="out1000_47_27" depart="14262.00">
        <route edges="-4342870#0 310578755#4 310578755#5 310578755#6 927807807 150154695#2 150154695#3 927807804#1 927807804#2 368284689#0 368284689#1 368284689#2 368284689#3 1118753701 1125076305 1133590935 281598441#0 281598441#1 281598437#0 281598437#1 281598437#2 150022145#1 150022145#2 150022145#3 -1120206446 -1120206447#2 -1120206447#0 -1120206448#1 -1120206448#0 -4343004#1 -4343004#0 936921960#1 936921958 606089574#1 42689596#0 42689596#1 368285695#0 368285695#1 368285695#2 1133592342#1"/>
    </vehicle>
    <vehicle id="out1000_47_28" depart="14268.00">
        <route edges="-39726119#2 -39726119#1 -1092816743 -295152804#2 1230309154#2 1115594868#0 1115594868#1 1230309152#1 243129121#0 243129121#1 1115598962#0 1115598962#1 1115598962#2 -184817880#5 -184817880#4"/>
    </vehicle>
    <vehicle id="out1000_47_29" depart="14274.00">
        <route edges="876331291#2 1157507458 1157507457 1157507459 876246507 983010616#0 983010616#1 983015021#0 983015021#1 983015020 876246512 983016190#0 1118753701 1125076305 1133590935 281598441#0 281598441#1 281598437#0 281598437#1 281598437#2 368286522#1 1184470616 1184476405"/>
    </vehicle>
    <vehicle id="out1000_47_30" depart="14280.00">
        <route edges="310578755#6 927807807 150154695#2 150154695#3 878414739#1 878414739#3 927831667 1115598939 1115594866 4342869#0 4342869#1 1118760208#0 -1115590335#3 -1115590335#2 927816920#1 927816920#2 927816920#4"/>
    </vehicle>
    <vehicle id="out1000_47_31" depart="14286.00">
        <route edges="1133590935 281598441#0 281598441#1 281598437#0 281598437#1 281598437#2 150022145#1 150022145#2 150022145#3 150022145#4 281598455 281598449#0 281598449#1 150047062#0 150047062#1 880408833#0 880408833#1 781871770#0 781871770#1 781424097 4328717#0 4328717#1 4328717#2"/>
    </vehicle>
    <vehicle id="out1000_47_32" depart="14292.00">
        <route edges="-999253621 -999253622 -1055185919#1 39726119#1 39726119#2 1092817745#1 1092817745#2 66452130 1122509039#2 1122509038 1122509036 1122509037#0 781415317#2 -746627561#0 -4854290#2 -4854290#1 -4854290#0 995557122 331489809 995557123 1122513070 1122513069#1 1122513069#2 4854319#0 4854319#2 4854319#3 5033237#0"/>
    </vehicle>
    <vehicle id="out1000_47_33" depart="14298.00">
        <route edges="4342869#1 1118760208#0 -1115590335#3 -1115590335#2 -39726111#5 -39726111#4 -39726111#3 -39726111#2 -39726111#1 936921960#1 936921958 606089574#1 150022145#1 150022145#2 150022145#3 150022145#4 281598455"/>
    </vehicle>
    <vehicle id="out1000_47_34" depart="14304.00">
        <route edges="927831671#1 927831671#2 927831670#2 927831668#0 927831668#2 927831668#3 150154692#0 -150154695#3 -150154695#2 -927807807 -310578755#6 -310578755#5 -310578755#4 -310578755#3 -310578755#0 -1215807513#1 -1215807513#0 880413312#1 880413312#2 880413312#3 939499547 939499546#1 939499546#2 939499546#3 781416273#0 781416273#2"/>
    </vehicle>
    <vehicle id="out1000_47_35" depart="14310.00">
        <route edges="1122509038 1122509036 1122509037#0 781415317#2 -974840227#0 -1055185917 -999253621 -999253622 -1055185919#1 -1092816743 -295152804#2 1230309154#2 1115594868#0 1115594868#1 4579203#0 4579203#1 4579203#2"/>
    </vehicle>
    <vehicle id="out1000_47_36" depart="14316.00">
        <route edges="1230309152#1 243129121#0 243129121#1 1115598962#0 1115598962#1 1115598962#2 1115594867#2 1115594867#3 1115594867#4 927831671#1 927831671#2 927831670#2 927831668#0 927831668#2 927831668#3 150154692#0 927807804#1 927807804#2 368284689#0 368284689#1 368284689#2 368284689#3 1118753701 1125076305 1133590935 281598441#0 281598441#1 281598437#0 281598437#1 281598437#2 150022145#1 150022145#2 150022145#3 -1120206446 -1120206447#2 -1120206447#0 -1120206448#1 -1120206448#0 -4343004#1 -4343004#0"/>
    </vehicle>
    <vehicle id="out1000_47_37" depart="14322.00">
        <route edges="66666802#1 66666802#2 1115594864 24764251 1133590935 281598441#0 281598441#1 281598437#0 281598437#1 281598437#2 150022145#1 150022145#2 150022145#3 -1120206446 -1120206447#2 -1120206447#0 -1120206448#1 -1120206448#0 -4343004#1 -4343004#0 936921960#1 936921958 606089574#1 42689596#0 42689596#1 368285695#0 368285695#1 368285695#2 1133592342#1 983016313#0 368284687 39726121 876331291#0 876331291#1 876331291#2 1157507458 1157507457 876246510 39726117#0 39726117#1 295152804#2 1092816743 1055185919#1 1055185918 999253621 1055185917 974840227#0 -781415317#2 -995555607#1 -995555607#0 -781416273#2 -781416273#0 -939499546#3 -939499546#2 -939499546#1"/>
    </vehicle>
    <vehicle id="out1000_47_38" depart="14328.00">
        <route edges="1055185918 999253621 1055185917 974840227#0 -746627561#0 -4854290#2 -4854290#1 -4854290#0 995557122 331489809 690284954 150342302#0 150342302#1 781415317#2 -974840227#0 -1055185917 -999253621 -999253622 -1055185919#1 -1092816743 -295152804#2 1230309154#2 1115594868#0 1115594868#1"/>
    </vehicle>
    <vehicle id="out1000_47_39" depart="14334.00">
        <route edges="-4854290#2 -4854290#1 -4854290#0 995557122 331489809 690284954 150342302#0 150342302#1 -995555607#1 -995555607#0 -781416273#2 -781416273#0 -939499546#3 -939499546#2 -939499546#1 -150342293#0 -880413312#3 -880413312#2 -880413312#1 1215807513#0 1215807513#1 1215807513#2 310578755#3 310578755#4 310578755#5 310578755#6 927807807 150154695#2 150154695#3 927807804#1 927807804#2 368284689#0 368284689#1 368284689#2 368284689#3 1118753701 1125076305 1133590935 281598441#0 281598441#1 281598437#0 281598437#1 281598437#2 150022145#1 150022145#2 150022145#3 -1120206446 -4328717#4 -4328717#3 -4328717#2 -4328717#1 -4328717#0 -3297526#5 -3297526#4 -3297526#3"/>
    </vehicle>
    <vehicle id="out1000_47_40" depart="14340.00">
        <route edges="1115594867#2 1115594867#3 1115594867#4 927831671#1 927831671#2 927831670#2 927831668#0 927831668#2 927831668#3 150154692#0 -150154695#3 -150154695#2 -377960833#1 -377960833#0 -1121010064#2 -1121010064#1 -1121010064#0 -1115598974#1 -1115598974#0 -927831668#0 -927831670#2 -927831671#2 -927831671#1 -1115594867#4 -1115594867#3 -1115594867#2 -1115598962#2"/>
    </vehicle>
    <vehicle id="out1000_47_41" depart="14346.00">
        <route edges="-1118754635#0 -1123961240#1 -1123961240#0 -1118754637#1 -1123961239#1 -1123961239#0 1115598962#0 1115598962#1 1115598962#2 1115594867#2 1115594867#3 1115594867#4 927831671#1 927831671#2 927831670#2"/>
    </vehicle>
    <vehicle id="out1000_47_42" depart="14352.00">
        <route edges="-4579203#3 -4579203#2 -4579203#1 -4579203#0 1230309152#1 243129121#0 243129121#1 1115598962#0 1115598962#1 1115598962#2 1115594867#2 1115594867#3 1115594867#4 927831671#1 927831671#2 927831670#2 927831668#0 927831668#2 927831668#3 150154692#0 927807804#1 927807804#2 368284689#0 368284689#1 368284689#2 368284689#3 1118753701 1125076305 1133590935 281598441#0 281598441#1 281598437#0 281598437#1 281598437#2 727578792#0 727578792#1 936921957#1 39726111#1"/>
    </vehicle>
    <vehicle id="out1000_47_43" depart="14358.00">
        <route edges="4579203#1 4579203#2 4579203#3 -39726119#2 -39726119#1 1055185919#1 1055185918 999253621 1055185917 974840227#0 -746627561#0 -4854290#2 -4854290#1 -4854290#0 995557122 66452127#0"/>
    </vehicle>
    <vehicle id="out1000_47_44" depart="14364.00">
        <route edges="781416273#2 995555607#0 995555607#1 781415317#2 -974840227#0 -1055185917 -999253621 -999253622 -1055185919#1 -1092816743 -295152804#2 243129119#0 243129119#1 243129119#2 876246506 983010616#0 983010616#1 983015021#0 983015021#1 983015020 876246512 983016190#0 1118753701 1125076305 1133590935 281598441#0 281598441#1 281598437#0 281598437#1 281598437#2 150022145#1 150022145#2 150022145#3 -1120206446"/>
    </vehicle>
    <vehicle id="out1000_47_45" depart="14370.00">
        <route edges="-1184476405 1128031926#0 1128031926#1 1128031925 368285696#0"/>
    </vehicle>
    <vehicle id="out1000_47_46" depart="14376.00">
        <route edges="281598452 150411738#0 150411738#1 42689596#0 42689596#1 368285695#0 368285695#1 368285695#2 1133592342#1 983016313#0 368284687 39726121 876331291#0 876331291#1 876331291#2 1157507458 1157507457 1157507459 876246507 983010616#0 983010616#1 -4705120#4 -4705120#3 -4705120#2 -4705120#1 -4705120#0 -1123961240#1"/>
    </vehicle>
    <vehicle id="out1000_47_47" depart="14382.00">
        <route edges="-39726111#5 -39726111#4 -39726111#3 -39726111#2 -39726111#1 936921960#1 936921958 606089574#1 42689596#0 42689596#1 368285695#0 368285695#1 368285695#2 1133592342#1 983016313#0 -368284689#3 -368284689#2 -368284689#1 -368284689#0 -927807804#2 -927807804#1 -150154692#0 -927831668#3 -927831668#2 -927831668#0 -927831670#2 -927831671#2 -927831671#1 -1115594867#4 -1115594867#3 -1115594867#2 -184817880#5 -184817880#4 -184817880#3 -184817880#2"/>
    </vehicle>
    <vehicle id="out1000_47_48" depart="14388.00">
        <route edges="-368284689#2 -368284689#1 -368284689#0 -927807804#2 -927807804#1 878414739#1 878414739#3 927831667 1115598939 1115594866 4342869#0 4342869#1 1118760208#0 -1115590335#3 5033261#0 5033261#1 270055655#0 270055655#1 270055655#2 -4342869#1"/>
    </vehicle>
    <vehicle id="out1000_47_49" depart="14394.00">
        <route edges="880413312#3 939499547 -4579339#0 -66452126#3 -66452126#2 -66452126#1 -66452126#0 184817880#1 184817880#2 184817880#3 184817880#4 184817880#5 1115594867#2 1115594867#3 1115594867#4 927831671#1 927831671#2 927831670#2 927831668#0 927831668#2 927831668#3 150154692#0 -150154695#3 -150154695#2 -377960833#1 -377960833#0 -1121010064#2 -1121010064#1 -1121010064#0 -1115598974#1 -1115598974#0 -927831668#0 -927831670#2 -927831671#2 -927831671#1 -1115594867#4 -1115594867#3"/>
    </vehicle>
</routes>
